<?xml version="1.0" encoding="UTF-8"?>

<!-- generated on 2023-06-13 19:09:25 by Eclipse SUMO netedit Version 1.17.0
-->

<routes xmlns:xsi="http://www.w3.org/2001/XMLSchema-instance" xsi:noNamespaceSchemaLocation="http://sumo.dlr.de/xsd/routes_file.xsd">
    <!-- VTypes -->
    <vType id="bike_bicycle" vClass="bicycle" accel="2.6" decel="4.5"/>
    <vType id="motorcycle_motorcycle" vClass="motorcycle" accel="2.6" decel="4.5"/>
    <vType id="veh_passenger" vClass="passenger" accel="2.6" decel="4.5"/>
    <!-- Vehicles, persons and containers (sorted by depart) -->
    <trip id="bike0" type="bike_bicycle" depart="0.00" departLane="random" from="227826940#5" to="267607730#0"/>
    <trip id="motorcycle0" type="motorcycle_motorcycle" depart="0.00" departLane="random" departSpeed="max" from="-985688098" to="267607730#0"/>
    <trip id="vhe1" type="veh_passenger" depart="0.00" departLane="random" from="227826940#5" to="267607730#0"/>
    <trip id="veh0" type="veh_passenger" depart="1.2" departLane="random" from="227826940#5" to="267607730#0"/>
    <trip id="motorcycle1" type="motorcycle_motorcycle" depart="1.27" departLane="random" from="169679274#26" to="267607730#0"/>
    <trip id="vhe2" type="veh_passenger" depart="2.21" departLane="random" from="227826940#5" to="267607730#0"/>
    <trip id="motorcycle2" type="motorcycle_motorcycle" depart="2.53" departLane="random" from="227744471#1" to="267607730#0"/>
    <trip id="vhe3" type="veh_passenger" depart="3.32" departLane="random" from="227826940#5" to="267607730#0"/>
    <trip id="motorcycle3" type="motorcycle_motorcycle" depart="3.80" departLane="random" from="-362492408#3" to="267607730#0"/>
    <trip id="vhe4" type="veh_passenger" depart="4.43" departLane="random" departSpeed="max" from="227826940#5" to="267607730#0"/>
    <trip id="motorcycle4" type="motorcycle_motorcycle" depart="5.07" departLane="random" from="166220863#1" to="267607730#0"/>
    <trip id="vhe5" type="veh_passenger" depart="5.53" departLane="random" departSpeed="max" from="227826940#5" to="267607730#0"/>
    <trip id="motorcycle5" type="motorcycle_motorcycle" depart="6.33" departLane="random" from="339112712#4" to="267607730#0"/>
    <trip id="vhe6" type="veh_passenger" depart="6.64" departLane="random" from="166219926#12" to="267607730#0"/>
    <trip id="motorcycle6" type="motorcycle_motorcycle" depart="7.60" departLane="random" from="-227494446#1" to="267607730#0"/>
    <trip id="motorcycle7" type="motorcycle_motorcycle" depart="8.87" departLane="random" from="-166219960#2" to="267607730#0"/>
    <trip id="vhe9" type="veh_passenger" depart="9.96" departLane="random" from="227826940#5" to="267607730#0"/>
    <trip id="motorcycle8" type="motorcycle_motorcycle" depart="10.13" departLane="random" from="267606599#3" to="267607730#0"/>
    <trip id="motorcycle9" type="motorcycle_motorcycle" depart="11.40" departLane="random" from="169562129#4" to="267607730#0"/>
    <trip id="motorcycle10" type="motorcycle_motorcycle" depart="12.67" departLane="random" from="-169679278#5" to="267607730#0"/>
    <trip id="motorcycle11" type="motorcycle_motorcycle" depart="13.93" departLane="random" from="-166220891#10" to="267607730#0"/>
    <trip id="vhe13" type="veh_passenger" depart="14.39" departLane="random" departSpeed="max" from="-166220901#4" to="267607730#0"/>
    <trip id="motorcycle12" type="motorcycle_motorcycle" depart="15.20" departLane="random" departSpeed="max" from="167317027#0" to="267607730#0"/>
    <trip id="motorcycle13" type="motorcycle_motorcycle" depart="16.47" departLane="random" from="724017859#0" to="267607730#0"/>
    <trip id="vhe15" type="veh_passenger" depart="16.60" departLane="random" from="227826940#5" to="267607730#0"/>
    <trip id="vhe16" type="veh_passenger" depart="17.71" departLane="random" from="227826940#5" to="267607730#0"/>
    <trip id="motorcycle14" type="motorcycle_motorcycle" depart="17.73" departLane="random" from="167317124#1" to="267607730#0"/>
    <trip id="motorcycle15" type="motorcycle_motorcycle" depart="19.00" departLane="random" from="-166219973#3" to="267607730#0"/>
    <trip id="vhe18" type="veh_passenger" depart="19.92" departLane="random" from="227826940#5" to="267607730#0"/>
    <trip id="motorcycle16" type="motorcycle_motorcycle" depart="20.27" departLane="random" departSpeed="max" from="267606775#0" to="267607730#0"/>
    <trip id="vhe19" type="veh_passenger" depart="21.03" departLane="random" from="-166219922#15" to="267607730#0"/>
    <trip id="motorcycle17" type="motorcycle_motorcycle" depart="21.53" departLane="random" from="-169679278#7" to="267607730#0"/>
    <trip id="vhe21" type="veh_passenger" depart="23.24" departLane="random" from="-166219922#15" to="267607730#0"/>
    <trip id="motorcycle19" type="motorcycle_motorcycle" depart="24.06" departLane="random" from="169679274#12" to="267607730#0"/>
    <trip id="vhe22" type="veh_passenger" depart="24.35" departLane="random" from="-166220873#0" to="267607730#0"/>
    <trip id="motorcycle20" type="motorcycle_motorcycle" depart="25.33" departLane="random" from="357045566#1" to="267607730#0"/>
    <trip id="vhe23" type="veh_passenger" depart="25.46" departLane="random" from="-166219922#15" to="267607730#0"/>
    <trip id="motorcycle23" type="motorcycle_motorcycle" depart="29.13" departLane="random" departSpeed="max" from="166220897#0" to="267607730#0"/>
    <trip id="motorcycle24" type="motorcycle_motorcycle" depart="30.40" departLane="random" departSpeed="max" from="986109305#0" to="267607730#0"/>
    <trip id="motorcycle25" type="motorcycle_motorcycle" depart="31.66" departLane="random" from="-166220853" to="267607730#0"/>
    <trip id="vhe29" type="veh_passenger" depart="32.10" departLane="random" from="-166219922#15" to="267607730#0"/>
    <trip id="motorcycle26" type="motorcycle_motorcycle" depart="32.93" departLane="random" from="-166219956#3" to="267607730#0"/>
    <trip id="motorcycle27" type="motorcycle_motorcycle" depart="34.20" departLane="random" from="57017121#5" to="267607730#0"/>
    <trip id="vhe31" type="veh_passenger" depart="34.31" departLane="random" from="-166219922#15" to="267607730#0"/>
    <trip id="vhe32" type="veh_passenger" depart="35.42" departLane="random" from="-166219922#15" to="267607730#0"/>
    <trip id="motorcycle36" type="motorcycle_motorcycle" depart="45.60" departLane="random" from="166220840#3" to="267607730#0"/>
    <trip id="vhe42" type="veh_passenger" depart="46.48" departLane="random" from="985688105#1" to="267607730#0"/>
    <trip id="motorcycle37" type="motorcycle_motorcycle" depart="46.86" departLane="random" from="-166219964#0" to="267607730#0"/>
    <trip id="vhe43" type="veh_passenger" depart="47.59" departLane="random" departSpeed="max" from="991443347#0" to="267607730#0"/>
    <trip id="motorcycle38" type="motorcycle_motorcycle" depart="48.13" departLane="random" departSpeed="max" from="986106336" to="267607730#0"/>
    <trip id="vhe44" type="veh_passenger" depart="48.70" departLane="random" from="-166219922#15" to="267607730#0"/>
    <trip id="motorcycle39" type="motorcycle_motorcycle" depart="49.40" departLane="random" from="339112712#12" to="267607730#0"/>
    <trip id="veh1" type="veh_passenger" depart="50.00" departLane="random" from="-166219922#15" to="267607730#0"/>
    <trip id="motorcycle40" type="motorcycle_motorcycle" depart="50.66" departLane="random" from="158638456#3" to="267607730#0"/>
    <trip id="motorcycle41" type="motorcycle_motorcycle" depart="51.93" departLane="random" from="-166220873#1" to="267607730#0"/>
    <trip id="vhe47" type="veh_passenger" depart="52.02" departLane="random" from="-166219922#15" to="267607730#0"/>
    <trip id="motorcycle43" type="motorcycle_motorcycle" depart="54.46" departLane="random" from="985695583#0" to="267607730#0"/>
    <trip id="vhe50" type="veh_passenger" depart="55.34" departLane="random" from="-166219922#15" to="267607730#0"/>
    <trip id="motorcycle44" type="motorcycle_motorcycle" depart="55.73" departLane="random" from="267607730#1" to="267607730#0"/>
    <trip id="vhe51" type="veh_passenger" depart="56.45" departLane="random" from="227826940#5" to="267607730#0"/>
    <trip id="motorcycle45" type="motorcycle_motorcycle" depart="57.00" departLane="random" from="-167317226#0" to="267607730#0"/>
    <trip id="vhe52" type="veh_passenger" depart="57.55" departLane="random" from="267606599#8" to="267607730#0"/>
    <trip id="motorcycle46" type="motorcycle_motorcycle" depart="58.26" departLane="random" departSpeed="max" from="-985688098" to="267607730#0"/>
    <trip id="vhe53" type="veh_passenger" depart="58.66" departLane="random" departSpeed="max" from="-167293552#1" to="267607730#0"/>
    <trip id="motorcycle47" type="motorcycle_motorcycle" depart="59.53" departLane="random" from="-169680951#7" to="267607730#0"/>
    <trip id="vhe54" type="veh_passenger" depart="59.77" departLane="random" departSpeed="max" from="-986107130" to="267607730#0"/>
    <trip id="motorcycle48" type="motorcycle_motorcycle" depart="60.80" departLane="random" departSpeed="max" from="-986101792" to="267607730#0"/>
    <trip id="vhe56" type="veh_passenger" depart="61.98" departLane="random" from="166219924" to="267607730#0"/>
    <trip id="motorcycle49" type="motorcycle_motorcycle" depart="62.06" departLane="random" from="166219969#4" to="267607730#0"/>
    <trip id="vhe57" type="veh_passenger" depart="63.09" departLane="random" from="868538946" to="267607730#0"/>
    <trip id="motorcycle50" type="motorcycle_motorcycle" depart="63.33" departLane="random" from="316315762" to="267607730#0"/>
    <trip id="vhe58" type="veh_passenger" depart="64.19" departLane="random" from="227826940#5" to="267607730#0"/>
    <trip id="motorcycle51" type="motorcycle_motorcycle" depart="64.60" departLane="random" departSpeed="max" from="-986107131" to="267607730#0"/>
    <trip id="veh15" type="veh_passenger" depart="65.00" departLane="random" from="227826940#5" to="267607730#0"/>
    <trip id="vhe59" type="veh_passenger" depart="65.30" departLane="random" from="227826940#5" to="267607730#0"/>
    <trip id="motorcycle52" type="motorcycle_motorcycle" depart="65.86" departLane="random" from="166219973#1" to="267607730#0"/>
    <trip id="motorcycle53" type="motorcycle_motorcycle" depart="67.13" departLane="random" from="-167317069#2" to="267607730#0"/>
    <trip id="vhe61" type="veh_passenger" depart="67.51" departLane="random" from="227744471#3" to="267607730#0"/>
    <trip id="motorcycle54" type="motorcycle_motorcycle" depart="68.40" departLane="random" from="-166219972#3" to="267607730#0"/>
    <trip id="motorcycle55" type="motorcycle_motorcycle" depart="69.66" departLane="random" departSpeed="max" from="-169679288#1" to="267607730#0"/>
    <trip id="vhe63" type="veh_passenger" depart="69.73" departLane="random" from="-166219922#13" to="267607730#0"/>
    <trip id="vhe64" type="veh_passenger" depart="70.83" departLane="random" departSpeed="max" from="688753819#0" to="267607730#0"/>
    <trip id="motorcycle56" type="motorcycle_motorcycle" depart="70.93" departLane="random" from="985688091#1" to="267607730#0"/>
    <trip id="vhe65" type="veh_passenger" depart="71.94" departLane="random" from="-57017120#5" to="267607730#0"/>
    <trip id="motorcycle57" type="motorcycle_motorcycle" depart="72.19" departLane="random" from="166219944#3" to="267607730#0"/>
    <trip id="vhe66" type="veh_passenger" depart="73.05" departLane="random" departSpeed="max" from="688753819#0" to="267607730#0"/>
    <trip id="vhe67" type="veh_passenger" depart="74.15" departLane="random" from="166220891#3" to="267607730#0"/>
    <trip id="vhe68" type="veh_passenger" depart="75.26" departLane="random" from="-166219973#3" to="267607730#0"/>
    <trip id="motorcycle60" type="motorcycle_motorcycle" depart="75.99" departLane="random" from="-166219967#2" to="267607730#0"/>
    <trip id="vhe69" type="veh_passenger" depart="76.37" departLane="random" from="227492934#1" to="267607730#0"/>
    <trip id="motorcycle61" type="motorcycle_motorcycle" depart="77.26" departLane="random" from="-267606688#1" to="267607730#0"/>
    <trip id="vhe70" type="veh_passenger" depart="77.47" departLane="random" from="1010755614#1" to="267607730#0"/>
    <trip id="vhe71" type="veh_passenger" depart="78.58" departLane="random" from="-267606599#4" to="267607730#0"/>
    <trip id="vhe72" type="veh_passenger" depart="79.69" departLane="random" departSpeed="max" from="-985736920" to="267607730#0"/>
    <trip id="motorcycle63" type="motorcycle_motorcycle" depart="79.79" departLane="random" from="227818181" to="267607730#0"/>
    <trip id="vhe73" type="veh_passenger" depart="80.79" departLane="random" from="166219965#2" to="267607730#0"/>
    <trip id="motorcycle64" type="motorcycle_motorcycle" depart="81.06" departLane="random" from="-166220893#1" to="267607730#0"/>
    <trip id="vhe74" type="veh_passenger" depart="81.90" departLane="random" departSpeed="max" from="-169680276#4" to="267607730#0"/>
    <trip id="motorcycle65" type="motorcycle_motorcycle" depart="82.33" departLane="random" departSpeed="max" from="-985688101" to="267607730#0"/>
    <trip id="motorcycle66" type="motorcycle_motorcycle" depart="83.59" departLane="random" from="-117031001#0" to="267607730#0"/>
    <trip id="motorcycle67" type="motorcycle_motorcycle" depart="84.86" departLane="random" from="167317033" to="267607730#0"/>
    <trip id="motorcycle68" type="motorcycle_motorcycle" depart="86.13" departLane="random" from="169680276#0" to="267607730#0"/>
    <trip id="vhe78" type="veh_passenger" depart="86.33" departLane="random" from="-853213336" to="267607730#0"/>
    <trip id="motorcycle69" type="motorcycle_motorcycle" depart="87.39" departLane="random" from="-985696868#1" to="267607730#0"/>
    <trip id="vhe79" type="veh_passenger" depart="87.43" departLane="random" departSpeed="max" from="-169683864#3" to="267607730#0"/>
    <trip id="vhe80" type="veh_passenger" depart="88.54" departLane="random" from="-166220840#2" to="267607730#0"/>
    <trip id="motorcycle70" type="motorcycle_motorcycle" depart="88.66" departLane="random" from="-166219969#2" to="267607730#0"/>
    <trip id="veh16" type="veh_passenger" depart="89.00" departLane="random" from="227826940#5" to="267607730#0"/>
    <trip id="vhe81" type="veh_passenger" depart="89.65" departLane="random" from="169683864#2" to="267607730#0"/>
    <trip id="motorcycle71" type="motorcycle_motorcycle" depart="89.93" departLane="random" from="57017120#1" to="267607730#0"/>
    <trip id="vhe82" type="veh_passenger" depart="90.76" departLane="random" from="57011500#0" to="267607730#0"/>
    <trip id="motorcycle72" type="motorcycle_motorcycle" depart="91.19" departLane="random" from="267606688#13" to="267607730#0"/>
    <trip id="vhe83" type="veh_passenger" depart="91.86" departLane="random" departSpeed="max" from="-169791242#1" to="267607730#0"/>
    <trip id="vhe85" type="veh_passenger" depart="94.08" departLane="random" from="-898303391#1" to="267607730#0"/>
    <trip id="motorcycle75" type="motorcycle_motorcycle" depart="94.99" departLane="random" from="-57016691#0" to="267607730#0"/>
    <trip id="vhe86" type="veh_passenger" depart="95.18" departLane="random" from="1000675590#1" to="267607730#0"/>
    <trip id="motorcycle76" type="motorcycle_motorcycle" depart="96.26" departLane="random" from="169686358#2" to="267607730#0"/>
    <trip id="motorcycle77" type="motorcycle_motorcycle" depart="97.53" departLane="random" departSpeed="max" from="-877391417#1" to="267607730#0"/>
    <trip id="vhe89" type="veh_passenger" depart="98.50" departLane="random" departSpeed="max" from="-985736920" to="267607730#0"/>
    <trip id="motorcycle78" type="motorcycle_motorcycle" depart="98.79" departLane="random" departSpeed="max" from="-167317036" to="267607730#0"/>
    <trip id="vhe90" type="veh_passenger" depart="99.61" departLane="random" from="169683842#2" to="267607730#0"/>
    <trip id="vhe91" type="veh_passenger" depart="100.72" departLane="random" from="-986105386" to="267607730#0"/>
    <trip id="motorcycle80" type="motorcycle_motorcycle" depart="101.33" departLane="random" from="339112690#5" to="267607730#0"/>
    <trip id="vhe92" type="veh_passenger" depart="101.82" departLane="random" departSpeed="max" from="-985690284" to="267607730#0"/>
    <trip id="vhe93" type="veh_passenger" depart="102.93" departLane="random" from="-57016687#0" to="267607730#0"/>
    <trip id="motorcycle83" type="motorcycle_motorcycle" depart="105.13" departLane="random" from="166219922#4" to="267607730#0"/>
    <trip id="vhe95" type="veh_passenger" depart="105.14" departLane="random" departSpeed="max" from="-985735791" to="267607730#0"/>
    <trip id="vhe96" type="veh_passenger" depart="106.25" departLane="random" from="-227492423#0" to="267607730#0"/>
    <trip id="motorcycle84" type="motorcycle_motorcycle" depart="106.39" departLane="random" from="307013306#1" to="267607730#0"/>
    <trip id="motorcycle85" type="motorcycle_motorcycle" depart="107.66" departLane="random" from="-877410552#1" to="267607730#0"/>
    <trip id="vhe98" type="veh_passenger" depart="108.46" departLane="random" from="-166219973#0" to="267607730#0"/>
    <trip id="motorcycle87" type="motorcycle_motorcycle" depart="110.19" departLane="random" from="167293523#9" to="267607730#0"/>
    <trip id="veh17" type="veh_passenger" depart="111.00" departLane="random" from="227826940#5" to="267607730#0"/>
    <trip id="motorcycle88" type="motorcycle_motorcycle" depart="111.46" departLane="random" from="166219963#2" to="267607730#0"/>
    <trip id="motorcycle89" type="motorcycle_motorcycle" depart="112.73" departLane="random" from="169680276#1" to="267607730#0"/>
    <trip id="motorcycle95" type="motorcycle_motorcycle" depart="120.32" departLane="random" from="850016092" to="267607730#0"/>
    <trip id="motorcycle96" type="motorcycle_motorcycle" depart="121.59" departLane="random" departSpeed="max" from="-985696870" to="267607730#0"/>
    <trip id="veh18" type="veh_passenger" depart="122.00" departLane="random" from="227826940#5" to="267607730#0"/>
    <trip id="motorcycle97" type="motorcycle_motorcycle" depart="122.86" departLane="random" departSpeed="max" from="167317131" to="267607730#0"/>
    <trip id="motorcycle98" type="motorcycle_motorcycle" depart="124.12" departLane="random" departSpeed="max" from="167317012" to="267607730#0"/>
    <trip id="motorcycle99" type="motorcycle_motorcycle" depart="125.39" departLane="random" departSpeed="max" from="-169680276#4" to="267607730#0"/>
    <trip id="motorcycle100" type="motorcycle_motorcycle" depart="126.66" departLane="random" from="339112690#0" to="267607730#0"/>
    <trip id="veh19" type="veh_passenger" depart="168.00" departLane="random" from="227826940#5" to="267607730#0"/>
    <trip id="veh20" type="veh_passenger" depart="250.00" departLane="random" from="227826940#5" to="267607730#0"/>
    <trip id="veh21" type="veh_passenger" depart="330.00" departLane="random" from="227826940#5" to="267607730#0"/>
    <trip id="veh22" type="veh_passenger" depart="400.00" departLane="random" from="227826940#5" to="267607730#0"/>
    <trip id="veh2" type="veh_passenger" depart="442.00" departLane="random" from="227826940#5" to="267607730#0"/>
    <trip id="veh5" type="veh_passenger" depart="450.00" departLane="random" from="227826940#5" to="267607730#0"/>
    <trip id="veh6" type="veh_passenger" depart="455.00" departLane="random" from="227826940#5" to="267607730#0"/>
    <trip id="veh7" type="veh_passenger" depart="460.00" departLane="random" from="227826940#5" to="267607730#0"/>
    <trip id="veh8" type="veh_passenger" depart="465.00" departLane="random" from="227826940#5" to="267607730#0"/>
    <trip id="veh9" type="veh_passenger" depart="470.00" departLane="random" from="227826940#5" to="267607730#0"/>
    <trip id="veh10" type="veh_passenger" depart="475.00" departLane="random" from="227826940#5" to="267607730#0"/>
    <trip id="veh11" type="veh_passenger" depart="485.00" departLane="random" from="166219897#3" to="267607730#0"/>
    <trip id="veh12" type="veh_passenger" depart="490.00" departLane="random" from="169680966#1" to="267607730#0"/>
    <trip id="veh13" type="veh_passenger" depart="500.00" departLane="random" from="169680966#1" to="267607730#0"/>
    <trip id="veh14" type="veh_passenger" depart="550.00" departLane="random" from="227826940#5" to="267607730#0"/>
</routes>
