<?xml version="1.0" encoding="UTF-8"?>

<!-- generated on 2023-06-07 16:01:40.198592 by osmWebWizard.py v1_17_0+0000-737931d58da
<configuration>
    <net-file value="C:\Program Files (x86)\Eclipse\Sumo\tools\2023-06-07-16-00-59\osm.net.xml.gz"/>
    <output-trip-file value="C:\Program Files (x86)\Eclipse\Sumo\tools\2023-06-07-16-00-59\osm.truck.trips.xml"/>
    <route-file value="C:\Program Files (x86)\Eclipse\Sumo\tools\2023-06-07-16-00-59\osm.truck.rou.xml"/>
    <prefix value="truck"/>
    <trip-attributes value="departLane=&quot;best&quot;"/>
    <fringe-start-attributes value="departSpeed=&quot;max&quot;"/>
    <fringe-factor value="5"/>
    <min-distance value="600.0"/>
    <min-distance.fringe value="10.0"/>
    <vclass value="truck"/>
    <vehicle-class value="truck"/>
    <remove-loops value="True"/>
    <via-edge-types value="highway.motorway,highway.motorway_link,highway.trunk_link,highway.primary_link,highway.secondary_link,highway.tertiary_link"/>
    <validate value="True"/>
    <insertion-density value="15.0"/>
</configuration>
-->

<!-- generated on 2023-06-07 16:01:38 by Eclipse SUMO duarouter Version 1.17.0
<configuration xmlns:xsi="http://www.w3.org/2001/XMLSchema-instance" xsi:noNamespaceSchemaLocation="http://sumo.dlr.de/xsd/duarouterConfiguration.xsd">

    <input>
        <net-file value="C:\Program Files (x86)\Eclipse\Sumo\tools\2023-06-07-16-00-59\osm.net.xml.gz"/>
        <route-files value="C:\Program Files (x86)\Eclipse\Sumo\tools\2023-06-07-16-00-59\osm.truck.trips.xml"/>
    </input>

    <output>
        <output-file value="C:\Program Files (x86)\Eclipse\Sumo\tools\2023-06-07-16-00-59\osm.truck.trips.xml.tmp"/>
        <alternatives-output value="NUL"/>
        <write-trips value="true"/>
    </output>

    <processing>
        <remove-loops value="true"/>
    </processing>

    <time>
        <begin value="0.0"/>
        <end value="3600.0"/>
    </time>

    <report>
        <no-warnings value="true"/>
        <ignore-errors value="true"/>
        <no-step-log value="true"/>
    </report>

</configuration>
-->

<routes xmlns:xsi="http://www.w3.org/2001/XMLSchema-instance" xsi:noNamespaceSchemaLocation="http://sumo.dlr.de/xsd/routes_file.xsd">
    <vType id="truck_truck" vClass="truck"/>
    <trip id="truck0" type="truck_truck" depart="0.00" departLane="best" departSpeed="max" from="167317055#0" to="-166219926#11"/>
    <trip id="truck1" type="truck_truck" depart="1.27" departLane="best" from="-205148471#4" to="169561524#2"/>
    <trip id="truck2" type="truck_truck" depart="2.53" departLane="best" departSpeed="max" from="169679281" to="-169679274#3"/>
    <trip id="truck3" type="truck_truck" depart="3.80" departLane="best" from="57016690" to="-166220873#1"/>
    <trip id="truck4" type="truck_truck" depart="5.07" departLane="best" departSpeed="max" from="-985733391" to="-166219926#8"/>
    <trip id="truck5" type="truck_truck" depart="6.33" departLane="best" departSpeed="max" from="167317112" to="-166220863#4"/>
    <trip id="truck6" type="truck_truck" depart="7.60" departLane="best" departSpeed="max" from="-169680272#2" to="167293568#2"/>
    <trip id="truck7" type="truck_truck" depart="8.87" departLane="best" from="-227492934#4" to="-135620024#0"/>
    <trip id="truck8" type="truck_truck" depart="10.13" departLane="best" departSpeed="max" from="227477711" to="169680273"/>
    <trip id="truck9" type="truck_truck" depart="11.40" departLane="best" from="-166220901#2" to="-166220897#0"/>
    <trip id="truck10" type="truck_truck" depart="12.67" departLane="best" departSpeed="max" from="267606775#0" to="167317036"/>
    <trip id="truck11" type="truck_truck" depart="13.93" departLane="best" departSpeed="max" from="227477711" to="169683859#2"/>
    <trip id="truck12" type="truck_truck" depart="15.20" departLane="best" from="166219960#1" to="986103483"/>
    <trip id="truck13" type="truck_truck" depart="16.47" departLane="best" from="868986738#1" to="-166220891#10"/>
    <trip id="truck14" type="truck_truck" depart="17.73" departLane="best" from="227827261" to="167317133#1"/>
    <trip id="truck15" type="truck_truck" depart="19.00" departLane="best" from="339112712#11" to="167293525#3"/>
    <trip id="truck16" type="truck_truck" depart="20.27" departLane="best" departSpeed="max" from="169402099" to="-166219943#0"/>
    <trip id="truck17" type="truck_truck" depart="21.53" departLane="best" from="-169680951#1" to="-169686362"/>
    <trip id="truck18" type="truck_truck" depart="22.80" departLane="best" from="-166220873#0" to="-169679274#16"/>
    <trip id="truck19" type="truck_truck" depart="24.06" departLane="best" from="-166220908#4" to="-169683857#0"/>
    <trip id="truck20" type="truck_truck" depart="25.33" departLane="best" departSpeed="max" from="167317039" to="57016692#2"/>
    <trip id="truck21" type="truck_truck" depart="26.60" departLane="best" from="-868982559#0" to="-169332184#0"/>
    <trip id="truck23" type="truck_truck" depart="29.13" departLane="best" from="-167317226#3" to="169683859#2"/>
    <trip id="truck24" type="truck_truck" depart="30.40" departLane="best" from="167317175#2" to="-695527353#2"/>
    <trip id="truck25" type="truck_truck" depart="31.66" departLane="best" departSpeed="max" from="986103482" to="167317226#2"/>
    <trip id="truck26" type="truck_truck" depart="32.93" departLane="best" departSpeed="max" from="166220841#0" to="-169679280#2"/>
    <trip id="truck27" type="truck_truck" depart="34.20" departLane="best" from="-267606688#19" to="22803525#2"/>
    <trip id="truck28" type="truck_truck" depart="35.46" departLane="best" from="-362492408#0" to="-169683842#2"/>
    <trip id="truck29" type="truck_truck" depart="36.73" departLane="best" departSpeed="max" from="-169679286#1" to="985699873"/>
    <trip id="truck30" type="truck_truck" depart="38.00" departLane="best" departSpeed="max" from="167317131" to="-853213334"/>
    <trip id="truck31" type="truck_truck" depart="39.26" departLane="best" from="-724017862#1" to="1010755616"/>
    <trip id="truck32" type="truck_truck" depart="40.53" departLane="best" from="166220849#1" to="-169680965#4"/>
    <trip id="truck33" type="truck_truck" depart="41.80" departLane="best" departSpeed="max" from="166220903#0" to="877391417#1"/>
    <trip id="truck34" type="truck_truck" depart="43.06" departLane="best" departSpeed="max" from="-985688092" to="-169402099"/>
    <trip id="truck35" type="truck_truck" depart="44.33" departLane="best" departSpeed="max" from="991443347#0" to="166219947"/>
    <trip id="truck36" type="truck_truck" depart="45.60" departLane="best" from="991443347#1" to="166219944#0"/>
    <trip id="truck37" type="truck_truck" depart="46.86" departLane="best" from="-167293525#4" to="167317165#1"/>
    <trip id="truck38" type="truck_truck" depart="48.13" departLane="best" departSpeed="max" from="169700743" to="-985586500"/>
    <trip id="truck39" type="truck_truck" depart="49.40" departLane="best" from="-166219969#2" to="724017861#0"/>
    <trip id="truck40" type="truck_truck" depart="50.66" departLane="best" departSpeed="max" from="986109305#0" to="166219968#2"/>
    <trip id="truck41" type="truck_truck" depart="51.93" departLane="best" from="-166219907#2" to="169682788#1"/>
    <trip id="truck42" type="truck_truck" depart="53.20" departLane="best" departSpeed="max" from="167317193#0" to="-166219978"/>
    <trip id="truck43" type="truck_truck" depart="54.46" departLane="best" departSpeed="max" from="-169686363#3" to="167317226#4"/>
    <trip id="truck44" type="truck_truck" depart="55.73" departLane="best" from="-167293536" to="-985696868#1"/>
    <trip id="truck45" type="truck_truck" depart="57.00" departLane="best" departSpeed="max" from="-986104609" to="985735792"/>
    <trip id="truck46" type="truck_truck" depart="58.26" departLane="best" from="357045569#0" to="-169682782#0"/>
    <trip id="truck47" type="truck_truck" depart="59.53" departLane="best" departSpeed="max" from="166219926#0" to="-167317139"/>
    <trip id="truck48" type="truck_truck" depart="60.80" departLane="best" from="-267606688#17" to="167317208#4"/>
    <trip id="truck49" type="truck_truck" depart="62.06" departLane="best" departSpeed="max" from="167293541" to="-167317027#1"/>
    <trip id="truck50" type="truck_truck" depart="63.33" departLane="best" from="169683864#1" to="166219969#2"/>
    <trip id="truck51" type="truck_truck" depart="64.60" departLane="best" departSpeed="max" from="-1010755616" to="-227826940#0"/>
    <trip id="truck52" type="truck_truck" depart="65.86" departLane="best" departSpeed="max" from="-166219922#15" to="985688098"/>
    <trip id="truck53" type="truck_truck" depart="67.13" departLane="best" from="362492408#2" to="443996534#3"/>
    <trip id="truck54" type="truck_truck" depart="68.40" departLane="best" from="339112690#3" to="-166219960#1"/>
    <trip id="truck55" type="truck_truck" depart="69.66" departLane="best" from="362492408#0" to="985733391"/>
    <trip id="truck56" type="truck_truck" depart="70.93" departLane="best" from="166220891#12" to="166219925"/>
    <trip id="truck57" type="truck_truck" depart="72.19" departLane="best" from="-166219973#2" to="-227474861#0"/>
    <trip id="truck58" type="truck_truck" depart="73.46" departLane="best" departSpeed="max" from="169683843#0" to="-167293565#1"/>
    <trip id="truck59" type="truck_truck" depart="74.73" departLane="best" from="339112712#8" to="166220884#2"/>
    <trip id="truck60" type="truck_truck" depart="75.99" departLane="best" from="-169686363#1" to="850016092"/>
    <trip id="truck61" type="truck_truck" depart="77.26" departLane="best" from="-166219964#0" to="169683859#2"/>
    <trip id="truck62" type="truck_truck" depart="78.53" departLane="best" from="169679274#3" to="-227494432"/>
    <trip id="truck63" type="truck_truck" depart="79.79" departLane="best" departSpeed="max" from="986109305#0" to="169402098"/>
    <trip id="truck64" type="truck_truck" depart="81.06" departLane="best" departSpeed="max" from="-986101792" to="166219958#1"/>
    <trip id="truck65" type="truck_truck" depart="82.33" departLane="best" from="167293568#1" to="-169678112#0"/>
    <trip id="truck66" type="truck_truck" depart="83.59" departLane="best" from="646131033" to="167293566#1"/>
    <trip id="truck67" type="truck_truck" depart="84.86" departLane="best" from="-169680951#6" to="-169402099"/>
    <trip id="truck68" type="truck_truck" depart="86.13" departLane="best" from="-166220840#1" to="167317172#2"/>
    <trip id="truck69" type="truck_truck" depart="87.39" departLane="best" from="-169680951#4" to="877527053"/>
    <trip id="truck70" type="truck_truck" depart="88.66" departLane="best" departSpeed="max" from="339112712#0" to="-166219973#1"/>
    <trip id="truck71" type="truck_truck" depart="89.93" departLane="best" from="-169682788#0" to="-169679274#12"/>
    <trip id="truck72" type="truck_truck" depart="91.19" departLane="best" departSpeed="max" from="-169679288#1" to="-167293568#2"/>
    <trip id="truck73" type="truck_truck" depart="92.46" departLane="best" departSpeed="max" from="868982557" to="-167293523#4"/>
    <trip id="truck74" type="truck_truck" depart="93.73" departLane="best" departSpeed="max" from="-986125896" to="267606688#16"/>
    <trip id="truck75" type="truck_truck" depart="94.99" departLane="best" from="166220903#3" to="-985688105#0"/>
    <trip id="truck76" type="truck_truck" depart="96.26" departLane="best" departSpeed="max" from="-985735790" to="158638456#1"/>
    <trip id="truck77" type="truck_truck" depart="97.53" departLane="best" from="339112712#11" to="-169679281"/>
    <trip id="truck78" type="truck_truck" depart="98.79" departLane="best" departSpeed="max" from="-985733391" to="-169683859#0"/>
    <trip id="truck79" type="truck_truck" depart="100.06" departLane="best" departSpeed="max" from="-169683859#2" to="985688092"/>
    <trip id="truck80" type="truck_truck" depart="101.33" departLane="best" departSpeed="max" from="-986101797#1" to="835392582"/>
    <trip id="truck81" type="truck_truck" depart="102.59" departLane="best" from="-166219972#0" to="-166219950#0"/>
    <trip id="truck82" type="truck_truck" depart="103.86" departLane="best" departSpeed="max" from="991443347#0" to="57011500#3"/>
    <trip id="truck83" type="truck_truck" depart="105.13" departLane="best" departSpeed="max" from="985688091#0" to="985688094"/>
    <trip id="truck84" type="truck_truck" depart="106.39" departLane="best" from="267606775#1" to="-167317112"/>
    <trip id="truck85" type="truck_truck" depart="107.66" departLane="best" departSpeed="max" from="-985688094" to="-166219960#3"/>
    <trip id="truck86" type="truck_truck" depart="108.93" departLane="best" from="-877391417#0" to="986107130"/>
    <trip id="truck87" type="truck_truck" depart="110.19" departLane="best" departSpeed="max" from="-986104609" to="-985586500"/>
    <trip id="truck88" type="truck_truck" depart="111.46" departLane="best" from="955778651#3" to="986125895"/>
    <trip id="truck89" type="truck_truck" depart="112.73" departLane="best" from="-166220840#2" to="169682786#4"/>
    <trip id="truck90" type="truck_truck" depart="113.99" departLane="best" departSpeed="max" from="-167317140#2" to="-205148464#0"/>
    <trip id="truck91" type="truck_truck" depart="115.26" departLane="best" departSpeed="max" from="985688091#0" to="167293525#8"/>
    <trip id="truck92" type="truck_truck" depart="116.52" departLane="best" departSpeed="max" from="-166219964#1" to="167293557"/>
    <trip id="truck93" type="truck_truck" depart="117.79" departLane="best" from="166219926#11" to="646131033"/>
    <trip id="truck94" type="truck_truck" depart="119.06" departLane="best" from="-167317146#1" to="985755652"/>
    <trip id="truck95" type="truck_truck" depart="120.32" departLane="best" from="-166220873#1" to="-167317164#0"/>
    <trip id="truck96" type="truck_truck" depart="121.59" departLane="best" from="166220906#1" to="169679274#27"/>
    <trip id="truck97" type="truck_truck" depart="122.86" departLane="best" from="-169682786#3" to="167293525#12"/>
    <trip id="truck98" type="truck_truck" depart="124.12" departLane="best" from="57016687#2" to="-169679280#1"/>
    <trip id="truck99" type="truck_truck" depart="125.39" departLane="best" departSpeed="max" from="166220906#0" to="167317137#0"/>
    <trip id="truck100" type="truck_truck" depart="126.66" departLane="best" departSpeed="max" from="-985703276#1" to="167293552#1"/>

</routes>
