<?xml version="1.0" encoding="UTF-8"?>

<!-- generated on 2023-06-13 19:09:25 by Eclipse SUMO netedit Version 1.17.0
-->

<routes xmlns:xsi="http://www.w3.org/2001/XMLSchema-instance" xsi:noNamespaceSchemaLocation="http://sumo.dlr.de/xsd/routes_file.xsd">
    <!-- VTypes -->
    <vType id="bike_bicycle" vClass="bicycle" accel="2.6" decel="4.5"/>
    <vType id="bus_bus" vClass="bus" accel="2.6" decel="4.5"/>
    <vType id="motorcycle_motorcycle" vClass="motorcycle" accel="2.6" decel="4.5"/>
    <vType id="truck_truck" vClass="truck" accel="2.6" decel="4.5"/>
    <vType id="veh_passenger" vClass="passenger" accel="2.6" decel="4.5"/>
    <!-- Vehicles, persons and containers (sorted by depart) -->
    <trip id="bike0" type="bike_bicycle" depart="0.00" departLane="best" from="227826940#5" to="267607730#0"/>
    <trip id="bus0" type="bus_bus" depart="0.00" departLane="best" departSpeed="max" from="227826940#5" to="267607730#0"/>
    <trip id="motorcycle0" type="motorcycle_motorcycle" depart="0.00" departLane="best" departSpeed="max" from="-985688098" to="267607730#0"/>
    <trip id="truck0" type="truck_truck" depart="0.00" departLane="best" departSpeed="max" from="167317055#0" to="267607730#0"/>
    <trip id="veh0" type="veh_passenger" depart="0.00" departLane="best" from="227826940#5" to="267607730#0"/>
    <trip id="bike1" type="bike_bicycle" depart="1.11" departLane="best" from="227826940#5" to="267607730#0"/>
    <trip id="bus1" type="bus_bus" depart="1.27" departLane="best" from="227826940#5" to="267607730#0"/>
    <trip id="motorcycle1" type="motorcycle_motorcycle" depart="1.27" departLane="best" from="169679274#26" to="267607730#0"/>
    <trip id="truck1" type="truck_truck" depart="1.27" departLane="best" from="-205148471#4" to="267607730#0"/>
    <trip id="bike2" type="bike_bicycle" depart="2.21" departLane="best" from="227826940#5" to="267607730#0"/>
    <trip id="bus2" type="bus_bus" depart="2.53" departLane="best" departSpeed="max" from="169679281" to="267607730#0"/>
    <trip id="motorcycle2" type="motorcycle_motorcycle" depart="2.53" departLane="best" from="227744471#1" to="267607730#0"/>
    <trip id="truck2" type="truck_truck" depart="2.53" departLane="best" departSpeed="max" from="169679281" to="267607730#0"/>
    <trip id="bike3" type="bike_bicycle" depart="3.32" departLane="best" from="227826940#5" to="267607730#0"/>
    <trip id="bus3" type="bus_bus" depart="3.80" departLane="best" from="227826940#5" to="267607730#0"/>
    <trip id="motorcycle3" type="motorcycle_motorcycle" depart="3.80" departLane="best" from="-362492408#3" to="267607730#0"/>
    <trip id="truck3" type="truck_truck" depart="3.80" departLane="best" from="57016690" to="267607730#0"/>
    <trip id="bike4" type="bike_bicycle" depart="4.43" departLane="best" departSpeed="max" from="227826940#5" to="267607730#0"/>
    <trip id="bus4" type="bus_bus" depart="5.07" departLane="best" departSpeed="max" from="-985733391" to="267607730#0"/>
    <trip id="motorcycle4" type="motorcycle_motorcycle" depart="5.07" departLane="best" from="166220863#1" to="267607730#0"/>
    <trip id="truck4" type="truck_truck" depart="5.07" departLane="best" departSpeed="max" from="-985733391" to="267607730#0"/>
    <trip id="bike5" type="bike_bicycle" depart="5.53" departLane="best" departSpeed="max" from="227826940#5" to="267607730#0"/>
    <trip id="bus5" type="bus_bus" depart="6.33" departLane="best" departSpeed="max" from="167317112" to="267607730#0"/>
    <trip id="motorcycle5" type="motorcycle_motorcycle" depart="6.33" departLane="best" from="339112712#4" to="267607730#0"/>
    <trip id="truck5" type="truck_truck" depart="6.33" departLane="best" departSpeed="max" from="167317112" to="267607730#0"/>
    <trip id="bike6" type="bike_bicycle" depart="6.64" departLane="best" from="166219926#12" to="267607730#0"/>
    <trip id="bus6" type="bus_bus" depart="7.60" departLane="best" departSpeed="max" from="-169680272#2" to="267607730#0"/>
    <trip id="motorcycle6" type="motorcycle_motorcycle" depart="7.60" departLane="best" from="-227494446#1" to="267607730#0"/>
    <trip id="truck6" type="truck_truck" depart="7.60" departLane="best" departSpeed="max" from="-169680272#2" to="267607730#0"/>
    <trip id="bike7" type="bike_bicycle" depart="7.75" departLane="best" departSpeed="max" from="167317207#0" to="267607730#0"/>
    <trip id="bus7" type="bus_bus" depart="8.87" departLane="best" from="227826940#5" to="267607730#0"/>
    <trip id="motorcycle7" type="motorcycle_motorcycle" depart="8.87" departLane="best" from="-166219960#2" to="267607730#0"/>
    <trip id="truck7" type="truck_truck" depart="8.87" departLane="best" from="-227492934#4" to="267607730#0"/>
    <trip id="bike9" type="bike_bicycle" depart="9.96" departLane="best" from="227826940#5" to="267607730#0"/>
    <trip id="bus8" type="bus_bus" depart="10.13" departLane="best" departSpeed="max" from="227477711" to="267607730#0"/>
    <trip id="motorcycle8" type="motorcycle_motorcycle" depart="10.13" departLane="best" from="267606599#3" to="267607730#0"/>
    <trip id="truck8" type="truck_truck" depart="10.13" departLane="best" departSpeed="max" from="227477711" to="267607730#0"/>
    <trip id="bike10" type="bike_bicycle" depart="11.07" departLane="best" departSpeed="max" from="267606775#0" to="267607730#0"/>
    <trip id="bus9" type="bus_bus" depart="11.40" departLane="best" from="227826940#5" to="267607730#0"/>
    <trip id="motorcycle9" type="motorcycle_motorcycle" depart="11.40" departLane="best" from="169562129#4" to="267607730#0"/>
    <trip id="truck9" type="truck_truck" depart="11.40" departLane="best" from="-166220901#2" to="267607730#0"/>
    <trip id="bike11" type="bike_bicycle" depart="12.17" departLane="best" from="-855299632#0" to="267607730#0"/>
    <trip id="bus10" type="bus_bus" depart="12.67" departLane="best" departSpeed="max" from="267606775#0" to="267607730#0"/>
    <trip id="motorcycle10" type="motorcycle_motorcycle" depart="12.67" departLane="best" from="-169679278#5" to="267607730#0"/>
    <trip id="truck10" type="truck_truck" depart="12.67" departLane="best" departSpeed="max" from="267606775#0" to="267607730#0"/>
    <trip id="bike12" type="bike_bicycle" depart="13.28" departLane="best" from="985690282#1" to="267607730#0"/>
    <trip id="bus11" type="bus_bus" depart="13.93" departLane="best" departSpeed="max" from="227477711" to="267607730#0"/>
    <trip id="motorcycle11" type="motorcycle_motorcycle" depart="13.93" departLane="best" from="-166220891#10" to="267607730#0"/>
    <trip id="truck11" type="truck_truck" depart="13.93" departLane="best" departSpeed="max" from="227477711" to="267607730#0"/>
    <trip id="bike13" type="bike_bicycle" depart="14.39" departLane="best" departSpeed="max" from="-166220901#4" to="267607730#0"/>
    <trip id="bus12" type="bus_bus" depart="15.20" departLane="best" from="227826940#5" to="267607730#0"/>
    <trip id="motorcycle12" type="motorcycle_motorcycle" depart="15.20" departLane="best" departSpeed="max" from="167317027#0" to="267607730#0"/>
    <trip id="truck12" type="truck_truck" depart="15.20" departLane="best" from="166219960#1" to="267607730#0"/>
    <trip id="bike14" type="bike_bicycle" depart="15.49" departLane="best" from="-362492408#3" to="267607730#0"/>
    <trip id="bus13" type="bus_bus" depart="16.47" departLane="best" from="227826940#5" to="267607730#0"/>
    <trip id="motorcycle13" type="motorcycle_motorcycle" depart="16.47" departLane="best" from="724017859#0" to="267607730#0"/>
    <trip id="truck13" type="truck_truck" depart="16.47" departLane="best" from="868986738#1" to="267607730#0"/>
    <trip id="bike15" type="bike_bicycle" depart="16.60" departLane="best" from="227826940#5" to="267607730#0"/>
    <trip id="bike16" type="bike_bicycle" depart="17.71" departLane="best" from="227826940#5" to="267607730#0"/>
    <trip id="bus14" type="bus_bus" depart="17.73" departLane="best" from="227826940#5" to="267607730#0"/>
    <trip id="motorcycle14" type="motorcycle_motorcycle" depart="17.73" departLane="best" from="167317124#1" to="267607730#0"/>
    <trip id="truck14" type="truck_truck" depart="17.73" departLane="best" from="227827261" to="267607730#0"/>
    <trip id="bike17" type="bike_bicycle" depart="18.82" departLane="best" departSpeed="max" from="-985474809" to="267607730#0"/>
    <trip id="bus15" type="bus_bus" depart="19.00" departLane="best" from="227826940#5" to="267607730#0"/>
    <trip id="motorcycle15" type="motorcycle_motorcycle" depart="19.00" departLane="best" from="-166219973#3" to="267607730#0"/>
    <trip id="truck15" type="truck_truck" depart="19.00" departLane="best" from="339112712#11" to="267607730#0"/>
    <trip id="bike18" type="bike_bicycle" depart="19.92" departLane="best" from="227826940#5" to="267607730#0"/>
    <trip id="bus16" type="bus_bus" depart="20.27" departLane="best" departSpeed="max" from="169402099" to="267607730#0"/>
    <trip id="motorcycle16" type="motorcycle_motorcycle" depart="20.27" departLane="best" departSpeed="max" from="267606775#0" to="267607730#0"/>
    <trip id="truck16" type="truck_truck" depart="20.27" departLane="best" departSpeed="max" from="169402099" to="267607730#0"/>
    <trip id="bike19" type="bike_bicycle" depart="21.03" departLane="best" from="227826940#5" to="267607730#0"/>
    <trip id="bus17" type="bus_bus" depart="21.53" departLane="best" from="227826940#5" to="267607730#0"/>
    <trip id="motorcycle17" type="motorcycle_motorcycle" depart="21.53" departLane="best" from="-169679278#7" to="267607730#0"/>
    <trip id="truck17" type="truck_truck" depart="21.53" departLane="best" from="-169680951#1" to="267607730#0"/>
    <trip id="bike20" type="bike_bicycle" depart="22.14" departLane="best" from="-169679294" to="267607730#0"/>
    <trip id="bus18" type="bus_bus" depart="22.80" departLane="best" from="227826940#5" to="267607730#0"/>
    <trip id="motorcycle18" type="motorcycle_motorcycle" depart="22.80" departLane="best" from="267606688#1" to="267607730#0"/>
    <trip id="truck18" type="truck_truck" depart="22.80" departLane="best" from="-166220873#0" to="267607730#0"/>
    <trip id="bike21" type="bike_bicycle" depart="23.24" departLane="best" from="227826940#5" to="267607730#0"/>
    <trip id="bus19" type="bus_bus" depart="24.06" departLane="best" from="227826940#5" to="267607730#0"/>
    <trip id="motorcycle19" type="motorcycle_motorcycle" depart="24.06" departLane="best" from="169679274#12" to="267607730#0"/>
    <trip id="truck19" type="truck_truck" depart="24.06" departLane="best" from="-166220908#4" to="267607730#0"/>
    <trip id="bike22" type="bike_bicycle" depart="24.35" departLane="best" from="-166220873#0" to="267607730#0"/>
    <trip id="bus20" type="bus_bus" depart="25.33" departLane="best" departSpeed="max" from="167317039" to="267607730#0"/>
    <trip id="motorcycle20" type="motorcycle_motorcycle" depart="25.33" departLane="best" from="357045566#1" to="267607730#0"/>
    <trip id="truck20" type="truck_truck" depart="25.33" departLane="best" departSpeed="max" from="167317039" to="267607730#0"/>
    <trip id="bike23" type="bike_bicycle" depart="25.46" departLane="best" from="227826940#5" to="267607730#0"/>
    <trip id="bike24" type="bike_bicycle" depart="26.56" departLane="best" departSpeed="max" from="167317154#0" to="267607730#0"/>
    <trip id="bus21" type="bus_bus" depart="26.60" departLane="best" from="227826940#5" to="267607730#0"/>
    <trip id="motorcycle21" type="motorcycle_motorcycle" depart="26.60" departLane="best" from="57017412#5" to="267607730#0"/>
    <trip id="truck21" type="truck_truck" depart="26.60" departLane="best" from="-868982559#0" to="267607730#0"/>
    <trip id="bike25" type="bike_bicycle" depart="27.67" departLane="best" departSpeed="max" from="-877407665#1" to="267607730#0"/>
    <trip id="motorcycle22" type="motorcycle_motorcycle" depart="27.86" departLane="best" from="166220841#1" to="267607730#0"/>
    <trip id="bike26" type="bike_bicycle" depart="28.78" departLane="best" from="227826940#5" to="267607730#0"/>
    <trip id="bus23" type="bus_bus" depart="29.13" departLane="best" from="227826940#5" to="267607730#0"/>
    <trip id="motorcycle23" type="motorcycle_motorcycle" depart="29.13" departLane="best" departSpeed="max" from="166220897#0" to="267607730#0"/>
    <trip id="truck23" type="truck_truck" depart="29.13" departLane="best" from="-167317226#3" to="267607730#0"/>
    <trip id="bus24" type="bus_bus" depart="30.40" departLane="best" from="227826940#5" to="267607730#0"/>
    <trip id="motorcycle24" type="motorcycle_motorcycle" depart="30.40" departLane="best" departSpeed="max" from="986109305#0" to="267607730#0"/>
    <trip id="truck24" type="truck_truck" depart="30.40" departLane="best" from="167317175#2" to="267607730#0"/>
    <trip id="bike28" type="bike_bicycle" depart="30.99" departLane="best" departSpeed="max" from="-169678151#1" to="267607730#0"/>
    <trip id="bus25" type="bus_bus" depart="31.66" departLane="best" departSpeed="max" from="986103482" to="267607730#0"/>
    <trip id="motorcycle25" type="motorcycle_motorcycle" depart="31.66" departLane="best" from="-166220853" to="267607730#0"/>
    <trip id="truck25" type="truck_truck" depart="31.66" departLane="best" departSpeed="max" from="986103482" to="267607730#0"/>
    <trip id="bike29" type="bike_bicycle" depart="32.10" departLane="best" from="227826940#5" to="267607730#0"/>
    <trip id="bus26" type="bus_bus" depart="32.93" departLane="best" departSpeed="max" from="166220841#0" to="267607730#0"/>
    <trip id="motorcycle26" type="motorcycle_motorcycle" depart="32.93" departLane="best" from="-166219956#3" to="267607730#0"/>
    <trip id="truck26" type="truck_truck" depart="32.93" departLane="best" departSpeed="max" from="166220841#0" to="267607730#0"/>
    <trip id="bike30" type="bike_bicycle" depart="33.20" departLane="best" departSpeed="max" from="986109601" to="267607730#0"/>
    <trip id="bus27" type="bus_bus" depart="34.20" departLane="best" from="227826940#5" to="267607730#0"/>
    <trip id="motorcycle27" type="motorcycle_motorcycle" depart="34.20" departLane="best" from="57017121#5" to="267607730#0"/>
    <trip id="truck27" type="truck_truck" depart="34.20" departLane="best" from="-267606688#19" to="267607730#0"/>
    <trip id="bike31" type="bike_bicycle" depart="34.31" departLane="best" from="227826940#5" to="267607730#0"/>
    <trip id="bike32" type="bike_bicycle" depart="35.42" departLane="best" from="227826940#5" to="267607730#0"/>
    <trip id="bus28" type="bus_bus" depart="35.46" departLane="best" from="227826940#5" to="267607730#0"/>
    <trip id="motorcycle28" type="motorcycle_motorcycle" depart="35.46" departLane="best" from="166219901#2" to="267607730#0"/>
    <trip id="truck28" type="truck_truck" depart="35.46" departLane="best" from="-362492408#0" to="267607730#0"/>
    <trip id="bike33" type="bike_bicycle" depart="36.52" departLane="best" from="169683864#2" to="267607730#0"/>
    <trip id="bus29" type="bus_bus" depart="36.73" departLane="best" departSpeed="max" from="-169679286#1" to="267607730#0"/>
    <trip id="motorcycle29" type="motorcycle_motorcycle" depart="36.73" departLane="best" from="167317208#0" to="267607730#0"/>
    <trip id="truck29" type="truck_truck" depart="36.73" departLane="best" departSpeed="max" from="-169679286#1" to="267607730#0"/>
    <trip id="bike34" type="bike_bicycle" depart="37.63" departLane="best" departSpeed="max" from="-584829495" to="267607730#0"/>
    <trip id="bus30" type="bus_bus" depart="38.00" departLane="best" departSpeed="max" from="167317131" to="267607730#0"/>
    <trip id="motorcycle30" type="motorcycle_motorcycle" depart="38.00" departLane="best" from="169683857#1" to="267607730#0"/>
    <trip id="truck30" type="truck_truck" depart="38.00" departLane="best" departSpeed="max" from="167317131" to="267607730#0"/>
    <trip id="bike35" type="bike_bicycle" depart="38.74" departLane="best" from="227826940#5" to="267607730#0"/>
    <trip id="bus31" type="bus_bus" depart="39.26" departLane="best" from="227826940#5" to="267607730#0"/>
    <trip id="motorcycle31" type="motorcycle_motorcycle" depart="39.26" departLane="best" from="357045566#1" to="267607730#0"/>
    <trip id="truck31" type="truck_truck" depart="39.26" departLane="best" from="-724017862#1" to="267607730#0"/>
    <trip id="bike36" type="bike_bicycle" depart="39.84" departLane="best" from="227826940#5" to="267607730#0"/>
    <trip id="bus32" type="bus_bus" depart="40.53" departLane="best" from="227826940#5" to="267607730#0"/>
    <trip id="motorcycle32" type="motorcycle_motorcycle" depart="40.53" departLane="best" from="-227492934#7" to="267607730#0"/>
    <trip id="truck32" type="truck_truck" depart="40.53" departLane="best" from="166220849#1" to="267607730#0"/>
    <trip id="bike37" type="bike_bicycle" depart="40.95" departLane="best" from="167317244#2" to="267607730#0"/>
    <trip id="bus33" type="bus_bus" depart="41.80" departLane="best" departSpeed="max" from="166220903#0" to="267607730#0"/>
    <trip id="motorcycle33" type="motorcycle_motorcycle" depart="41.80" departLane="best" departSpeed="max" from="-1010755616" to="267607730#0"/>
    <trip id="truck33" type="truck_truck" depart="41.80" departLane="best" departSpeed="max" from="166220903#0" to="267607730#0"/>
    <trip id="bike38" type="bike_bicycle" depart="42.06" departLane="best" departSpeed="max" from="868982557" to="267607730#0"/>
    <trip id="bus34" type="bus_bus" depart="43.06" departLane="best" departSpeed="max" from="-985688092" to="267607730#0"/>
    <trip id="motorcycle34" type="motorcycle_motorcycle" depart="43.06" departLane="best" from="227826940#5" to="267607730#0"/>
    <trip id="truck34" type="truck_truck" depart="43.06" departLane="best" departSpeed="max" from="-985688092" to="267607730#0"/>
    <trip id="bike39" type="bike_bicycle" depart="43.16" departLane="best" from="-267606599#4" to="267607730#0"/>
    <trip id="bike40" type="bike_bicycle" depart="44.27" departLane="best" from="-166220863#1" to="267607730#0"/>
    <trip id="bus35" type="bus_bus" depart="44.33" departLane="best" departSpeed="max" from="991443347#0" to="267607730#0"/>
    <trip id="motorcycle35" type="motorcycle_motorcycle" depart="44.33" departLane="best" from="357045569#1" to="267607730#0"/>
    <trip id="truck35" type="truck_truck" depart="44.33" departLane="best" departSpeed="max" from="991443347#0" to="267607730#0"/>
    <trip id="bike41" type="bike_bicycle" depart="45.38" departLane="best" from="166220906#2" to="267607730#0"/>
    <trip id="bus36" type="bus_bus" depart="45.60" departLane="best" from="991443347#1" to="267607730#0"/>
    <trip id="motorcycle36" type="motorcycle_motorcycle" depart="45.60" departLane="best" from="166220840#3" to="267607730#0"/>
    <trip id="truck36" type="truck_truck" depart="45.60" departLane="best" from="991443347#1" to="267607730#0"/>
    <trip id="bike42" type="bike_bicycle" depart="46.48" departLane="best" from="985688105#1" to="267607730#0"/>
    <trip id="bus37" type="bus_bus" depart="46.86" departLane="best" from="-167293525#4" to="267607730#0"/>
    <trip id="motorcycle37" type="motorcycle_motorcycle" depart="46.86" departLane="best" from="-166219964#0" to="267607730#0"/>
    <trip id="truck37" type="truck_truck" depart="46.86" departLane="best" from="-167293525#4" to="267607730#0"/>
    <trip id="bike43" type="bike_bicycle" depart="47.59" departLane="best" departSpeed="max" from="991443347#0" to="267607730#0"/>
    <trip id="bus38" type="bus_bus" depart="48.13" departLane="best" departSpeed="max" from="169700743" to="267607730#0"/>
    <trip id="motorcycle38" type="motorcycle_motorcycle" depart="48.13" departLane="best" departSpeed="max" from="986106336" to="267607730#0"/>
    <trip id="truck38" type="truck_truck" depart="48.13" departLane="best" departSpeed="max" from="169700743" to="267607730#0"/>
    <trip id="bike44" type="bike_bicycle" depart="48.70" departLane="best" from="227826940#5" to="267607730#0"/>
    <trip id="bus39" type="bus_bus" depart="49.40" departLane="best" from="-166219969#2" to="267607730#0"/>
    <trip id="motorcycle39" type="motorcycle_motorcycle" depart="49.40" departLane="best" from="339112712#12" to="267607730#0"/>
    <trip id="truck39" type="truck_truck" depart="49.40" departLane="best" from="-166219969#2" to="267607730#0"/>
    <trip id="bike45" type="bike_bicycle" depart="49.80" departLane="best" from="227826940#5" to="267607730#0"/>
    <trip id="veh1" type="veh_passenger" depart="50.00" departLane="best" from="227826940#5" to="267607730#0"/>
    <trip id="bus40" type="bus_bus" depart="50.66" departLane="best" departSpeed="max" from="986109305#0" to="267607730#0"/>
    <trip id="motorcycle40" type="motorcycle_motorcycle" depart="50.66" departLane="best" from="158638456#3" to="267607730#0"/>
    <trip id="truck40" type="truck_truck" depart="50.66" departLane="best" departSpeed="max" from="986109305#0" to="267607730#0"/>
    <trip id="bike46" type="bike_bicycle" depart="50.91" departLane="best" from="22803525#2" to="267607730#0"/>
    <trip id="bus41" type="bus_bus" depart="51.93" departLane="best" from="-166219907#2" to="267607730#0"/>
    <trip id="motorcycle41" type="motorcycle_motorcycle" depart="51.93" departLane="best" from="-166220873#1" to="267607730#0"/>
    <trip id="truck41" type="truck_truck" depart="51.93" departLane="best" from="-166219907#2" to="267607730#0"/>
    <trip id="bike47" type="bike_bicycle" depart="52.02" departLane="best" from="227826940#5" to="267607730#0"/>
    <trip id="bike48" type="bike_bicycle" depart="53.12" departLane="best" departSpeed="max" from="986122167" to="267607730#0"/>
    <trip id="bus42" type="bus_bus" depart="53.20" departLane="best" departSpeed="max" from="167317193#0" to="267607730#0"/>
    <trip id="motorcycle42" type="motorcycle_motorcycle" depart="53.20" departLane="best" from="169679278#7" to="267607730#0"/>
    <trip id="truck42" type="truck_truck" depart="53.20" departLane="best" departSpeed="max" from="167317193#0" to="267607730#0"/>
    <trip id="bike49" type="bike_bicycle" depart="54.23" departLane="best" from="985738270" to="267607730#0"/>
    <trip id="bus43" type="bus_bus" depart="54.46" departLane="best" departSpeed="max" from="-169686363#3" to="267607730#0"/>
    <trip id="motorcycle43" type="motorcycle_motorcycle" depart="54.46" departLane="best" from="985695583#0" to="267607730#0"/>
    <trip id="truck43" type="truck_truck" depart="54.46" departLane="best" departSpeed="max" from="-169686363#3" to="267607730#0"/>
    <trip id="bike50" type="bike_bicycle" depart="55.34" departLane="best" from="227826940#5" to="267607730#0"/>
    <trip id="bus44" type="bus_bus" depart="55.73" departLane="best" from="-167293536" to="267607730#0"/>
    <trip id="motorcycle44" type="motorcycle_motorcycle" depart="55.73" departLane="best" from="267607730#1" to="267607730#0"/>
    <trip id="truck44" type="truck_truck" depart="55.73" departLane="best" from="-167293536" to="267607730#0"/>
    <trip id="bike51" type="bike_bicycle" depart="56.45" departLane="best" from="227826940#5" to="267607730#0"/>
    <trip id="bus45" type="bus_bus" depart="57.00" departLane="best" departSpeed="max" from="-986104609" to="267607730#0"/>
    <trip id="motorcycle45" type="motorcycle_motorcycle" depart="57.00" departLane="best" from="-167317226#0" to="267607730#0"/>
    <trip id="truck45" type="truck_truck" depart="57.00" departLane="best" departSpeed="max" from="-986104609" to="267607730#0"/>
    <trip id="bike52" type="bike_bicycle" depart="57.55" departLane="best" from="267606599#8" to="267607730#0"/>
    <trip id="bus46" type="bus_bus" depart="58.26" departLane="best" from="357045569#0" to="267607730#0"/>
    <trip id="motorcycle46" type="motorcycle_motorcycle" depart="58.26" departLane="best" departSpeed="max" from="-985688098" to="267607730#0"/>
    <trip id="truck46" type="truck_truck" depart="58.26" departLane="best" from="357045569#0" to="267607730#0"/>
    <trip id="bike53" type="bike_bicycle" depart="58.66" departLane="best" departSpeed="max" from="-167293552#1" to="267607730#0"/>
    <trip id="bus47" type="bus_bus" depart="59.53" departLane="best" departSpeed="max" from="166219926#0" to="267607730#0"/>
    <trip id="motorcycle47" type="motorcycle_motorcycle" depart="59.53" departLane="best" from="-169680951#7" to="267607730#0"/>
    <trip id="truck47" type="truck_truck" depart="59.53" departLane="best" departSpeed="max" from="166219926#0" to="267607730#0"/>
    <trip id="bike54" type="bike_bicycle" depart="59.77" departLane="best" departSpeed="max" from="-986107130" to="267607730#0"/>
    <trip id="bus48" type="bus_bus" depart="60.80" departLane="best" from="-267606688#17" to="267607730#0"/>
    <trip id="motorcycle48" type="motorcycle_motorcycle" depart="60.80" departLane="best" departSpeed="max" from="-986101792" to="267607730#0"/>
    <trip id="truck48" type="truck_truck" depart="60.80" departLane="best" from="-267606688#17" to="267607730#0"/>
    <trip id="bike55" type="bike_bicycle" depart="60.87" departLane="best" from="57017412#2" to="267607730#0"/>
    <trip id="bike56" type="bike_bicycle" depart="61.98" departLane="best" from="166219924" to="267607730#0"/>
    <trip id="bus49" type="bus_bus" depart="62.06" departLane="best" departSpeed="max" from="167293541" to="267607730#0"/>
    <trip id="motorcycle49" type="motorcycle_motorcycle" depart="62.06" departLane="best" from="166219969#4" to="267607730#0"/>
    <trip id="truck49" type="truck_truck" depart="62.06" departLane="best" departSpeed="max" from="167293541" to="267607730#0"/>
    <trip id="bike57" type="bike_bicycle" depart="63.09" departLane="best" from="868538946" to="267607730#0"/>
    <trip id="bus50" type="bus_bus" depart="63.33" departLane="best" from="169683864#1" to="267607730#0"/>
    <trip id="motorcycle50" type="motorcycle_motorcycle" depart="63.33" departLane="best" from="316315762" to="267607730#0"/>
    <trip id="truck50" type="truck_truck" depart="63.33" departLane="best" from="169683864#1" to="267607730#0"/>
    <trip id="bike58" type="bike_bicycle" depart="64.19" departLane="best" from="227826940#5" to="267607730#0"/>
    <trip id="bus51" type="bus_bus" depart="64.60" departLane="best" departSpeed="max" from="-1010755616" to="267607730#0"/>
    <trip id="motorcycle51" type="motorcycle_motorcycle" depart="64.60" departLane="best" departSpeed="max" from="-986107131" to="267607730#0"/>
    <trip id="truck51" type="truck_truck" depart="64.60" departLane="best" departSpeed="max" from="-1010755616" to="267607730#0"/>
    <trip id="veh15" type="veh_passenger" depart="65.00" departLane="best" from="227826940#5" to="267607730#0"/>
    <trip id="bike59" type="bike_bicycle" depart="65.30" departLane="best" from="227826940#5" to="267607730#0"/>
    <trip id="bus52" type="bus_bus" depart="65.86" departLane="best" departSpeed="max" from="-166219922#15" to="267607730#0"/>
    <trip id="motorcycle52" type="motorcycle_motorcycle" depart="65.86" departLane="best" from="166219973#1" to="267607730#0"/>
    <trip id="truck52" type="truck_truck" depart="65.86" departLane="best" departSpeed="max" from="-166219922#15" to="267607730#0"/>
    <trip id="bike60" type="bike_bicycle" depart="66.41" departLane="best" departSpeed="max" from="227486359" to="267607730#0"/>
    <trip id="bus53" type="bus_bus" depart="67.13" departLane="best" from="362492408#2" to="267607730#0"/>
    <trip id="motorcycle53" type="motorcycle_motorcycle" depart="67.13" departLane="best" from="-167317069#2" to="267607730#0"/>
    <trip id="truck53" type="truck_truck" depart="67.13" departLane="best" from="362492408#2" to="267607730#0"/>
    <trip id="bike61" type="bike_bicycle" depart="67.51" departLane="best" from="227744471#3" to="267607730#0"/>
    <trip id="bus54" type="bus_bus" depart="68.40" departLane="best" from="339112690#3" to="267607730#0"/>
    <trip id="motorcycle54" type="motorcycle_motorcycle" depart="68.40" departLane="best" from="-166219972#3" to="267607730#0"/>
    <trip id="truck54" type="truck_truck" depart="68.40" departLane="best" from="339112690#3" to="267607730#0"/>
    <trip id="bike62" type="bike_bicycle" depart="68.62" departLane="best" departSpeed="max" from="-1000675589" to="267607730#0"/>
    <trip id="bus55" type="bus_bus" depart="69.66" departLane="best" from="362492408#0" to="267607730#0"/>
    <trip id="motorcycle55" type="motorcycle_motorcycle" depart="69.66" departLane="best" departSpeed="max" from="-169679288#1" to="267607730#0"/>
    <trip id="truck55" type="truck_truck" depart="69.66" departLane="best" from="362492408#0" to="267607730#0"/>
    <trip id="bike63" type="bike_bicycle" depart="69.73" departLane="best" from="-166219922#13" to="267607730#0"/>
    <trip id="bike64" type="bike_bicycle" depart="70.83" departLane="best" departSpeed="max" from="688753819#0" to="267607730#0"/>
    <trip id="bus56" type="bus_bus" depart="70.93" departLane="best" from="166220891#12" to="267607730#0"/>
    <trip id="motorcycle56" type="motorcycle_motorcycle" depart="70.93" departLane="best" from="985688091#1" to="267607730#0"/>
    <trip id="truck56" type="truck_truck" depart="70.93" departLane="best" from="166220891#12" to="267607730#0"/>
    <trip id="bike65" type="bike_bicycle" depart="71.94" departLane="best" from="-57017120#5" to="267607730#0"/>
    <trip id="bus57" type="bus_bus" depart="72.19" departLane="best" from="-166219973#2" to="267607730#0"/>
    <trip id="motorcycle57" type="motorcycle_motorcycle" depart="72.19" departLane="best" from="166219944#3" to="267607730#0"/>
    <trip id="truck57" type="truck_truck" depart="72.19" departLane="best" from="-166219973#2" to="267607730#0"/>
    <trip id="bike66" type="bike_bicycle" depart="73.05" departLane="best" departSpeed="max" from="688753819#0" to="267607730#0"/>
    <trip id="bus58" type="bus_bus" depart="73.46" departLane="best" departSpeed="max" from="169683843#0" to="267607730#0"/>