<?xml version="1.0" encoding="UTF-8"?>

<!-- generated on 2023-05-27 22:26:56.560129 by osmWebWizard.py v1_17_0+0000-737931d58da
<configuration>
    <net-file value="C:\Program Files (x86)\Eclipse\Sumo\tools\2023-05-27-22-26-52\osm.net.xml.gz"/>
    <output-trip-file value="C:\Program Files (x86)\Eclipse\Sumo\tools\2023-05-27-22-26-52\osm.passenger.trips.xml"/>
    <route-file value="C:\Program Files (x86)\Eclipse\Sumo\tools\2023-05-27-22-26-52\osm.passenger.rou.xml"/>
    <prefix value="veh"/>
    <trip-attributes value="departLane=&quot;best&quot;"/>
    <fringe-start-attributes value="departSpeed=&quot;max&quot;"/>
    <lanes value="True"/>
    <fringe-factor value="5"/>
    <allow-fringe.min-length value="1000.0"/>
    <min-distance value="300.0"/>
    <min-distance.fringe value="10.0"/>
    <vehicle-class value="passenger"/>
    <remove-loops value="True"/>
    <via-edge-types value="highway.motorway,highway.motorway_link,highway.trunk_link,highway.primary_link,highway.secondary_link,highway.tertiary_link"/>
    <validate value="True"/>
    <insertion-density value="1.0"/>
</configuration>
-->

<!-- generated on 2023-05-27 22:26:56 by Eclipse SUMO duarouter Version 1.17.0
<configuration xmlns:xsi="http://www.w3.org/2001/XMLSchema-instance" xsi:noNamespaceSchemaLocation="http://sumo.dlr.de/xsd/duarouterConfiguration.xsd">

    <input>
        <net-file value="C:\Program Files (x86)\Eclipse\Sumo\tools\2023-05-27-22-26-52\osm.net.xml.gz"/>
        <route-files value="C:\Program Files (x86)\Eclipse\Sumo\tools\2023-05-27-22-26-52\osm.passenger.trips.xml"/>
    </input>

    <output>
        <output-file value="C:\Program Files (x86)\Eclipse\Sumo\tools\2023-05-27-22-26-52\osm.passenger.trips.xml.tmp"/>
        <alternatives-output value="NUL"/>
        <write-trips value="true"/>
    </output>

    <processing>
        <remove-loops value="true"/>
    </processing>

    <time>
        <begin value="0.0"/>
        <end value="3600.0"/>
    </time>

    <report>
        <no-warnings value="true"/>
        <ignore-errors value="true"/>
        <no-step-log value="true"/>
    </report>

</configuration>
-->

<routes xmlns:xsi="http://www.w3.org/2001/XMLSchema-instance" xsi:noNamespaceSchemaLocation="http://sumo.dlr.de/xsd/routes_file.xsd">
    <vType id="veh_passenger" accel="2.6" decel="4.5" vClass="passenger"/>
    <trip id="veh0" type="veh_passenger" depart="0.00" departLane="best" from="307013301" to="-169679274#0"/>
	<!-- <trip id="veh1" type="veh_passenger" depart="221.00" departLane="best" from="307013301" to="-169679274#0"/>
	<trip id="veh2" type="veh_passenger" depart="442.00" departLane="best" from="307013301" to="-169679274#0"/>
	<trip id="veh3" type="veh_passenger" depart="663.00" departLane="best" from="307013301" to="-169679274#0"/>
	<trip id="veh4" type="veh_passenger" depart="884.00" departLane="best" from="307013301" to="-169679274#0"/>
	<trip id="veh5" type="veh_passenger" depart="1005.00" departLane="best" from="307013301" to="-169679274#0"/>
	<trip id="veh6" type="veh_passenger" depart="1226.00" departLane="best" from="307013301" to="-169679274#0"/>
	<trip id="veh7" type="veh_passenger" depart="1447.00" departLane="best" from="307013301" to="-169679274#0"/>
	<trip id="veh8" type="veh_passenger" depart="1668.00" departLane="best" from="307013301" to="-169679274#0"/>
	<trip id="veh9" type="veh_passenger" depart="1889.00" departLane="best" from="307013301" to="-169679274#0"/>
	<trip id="veh10" type="veh_passenger" depart="2110.00" departLane="best" from="307013301" to="-169679274#0"/>
	<trip id="veh11" type="veh_passenger" depart="2331.00" departLane="best" from="307013301" to="-169679274#0"/>
	<trip id="veh12" type="veh_passenger" depart="2552.00" departLane="best" from="307013301" to="-169679274#0"/>
	<trip id="veh13" type="veh_passenger" depart="2773.00" departLane="best" from="307013301" to="-169679274#0"/>
	<trip id="veh14" type="veh_passenger" depart="2994.00" departLane="best" from="307013301" to="-169679274#0"/>
	<trip id="veh15" type="veh_passenger" depart="3215.00" departLane="best" from="307013301" to="-169679274#0"/>
	<trip id="veh16" type="veh_passenger" depart="3436.00" departLane="best" from="307013301" to="-169679274#0"/>
	<trip id="veh17" type="veh_passenger" depart="3657.00" departLane="best" from="307013301" to="-169679274#0"/>
	<trip id="veh18" type="veh_passenger" depart="3878.00" departLane="best" from="307013301" to="-169679274#0"/>
	<trip id="veh19" type="veh_passenger" depart="4099.00" departLane="best" from="307013301" to="-169679274#0"/>
	<trip id="veh20" type="veh_passenger" depart="4541.00" departLane="best" from="307013301" to="-169679274#0"/>
	<trip id="veh21" type="veh_passenger" depart="4762.00" departLane="best" from="307013301" to="-169679274#0"/>
	<trip id="veh22" type="veh_passenger" depart="4983.00" departLane="best" from="307013301" to="-169679274#0"/>
	<trip id="veh23" type="veh_passenger" depart="5204.00" departLane="best" from="307013301" to="-169679274#0"/>
	<trip id="veh24" type="veh_passenger" depart="5425.00" departLane="best" from="307013301" to="-169679274#0"/>
	<trip id="veh25" type="veh_passenger" depart="5646.00" departLane="best" from="307013301" to="-169679274#0"/>
	<trip id="veh26" type="veh_passenger" depart="5867.00" departLane="best" from="307013301" to="-169679274#0"/>
	<trip id="veh27" type="veh_passenger" depart="6088.00" departLane="best" from="307013301" to="-169679274#0"/>
	<trip id="veh28" type="veh_passenger" depart="6309.00" departLane="best" from="307013301" to="-169679274#0"/>
	<trip id="veh29" type="veh_passenger" depart="6530.00" departLane="best" from="307013301" to="-169679274#0"/>
	<trip id="veh30" type="veh_passenger" depart="6751.00" departLane="best" from="307013301" to="-169679274#0"/>
	<trip id="veh31" type="veh_passenger" depart="6972.00" departLane="best" from="307013301" to="-169679274#0"/>
	<trip id="veh32" type="veh_passenger" depart="7193.00" departLane="best" from="307013301" to="-169679274#0"/> -->
</routes>
