<?xml version="1.0" encoding="UTF-8"?>

<!-- generated on 2023-06-07 16:01:24.144937 by osmWebWizard.py v1_17_0+0000-737931d58da
<configuration>
    <net-file value="C:\Program Files (x86)\Eclipse\Sumo\tools\2023-06-07-16-00-59\osm.net.xml.gz"/>
    <output-trip-file value="C:\Program Files (x86)\Eclipse\Sumo\tools\2023-06-07-16-00-59\osm.bus.trips.xml"/>
    <route-file value="C:\Program Files (x86)\Eclipse\Sumo\tools\2023-06-07-16-00-59\osm.bus.rou.xml"/>
    <prefix value="bus"/>
    <trip-attributes value="departLane=&quot;best&quot;"/>
    <fringe-start-attributes value="departSpeed=&quot;max&quot;"/>
    <fringe-factor value="5"/>
    <min-distance value="600.0"/>
    <min-distance.fringe value="10.0"/>
    <vclass value="bus"/>
    <vehicle-class value="bus"/>
    <remove-loops value="True"/>
    <via-edge-types value="highway.motorway,highway.motorway_link,highway.trunk_link,highway.primary_link,highway.secondary_link,highway.tertiary_link"/>
    <validate value="True"/>
    <insertion-density value="15.0"/>
</configuration>
-->

<!-- generated on 2023-06-07 16:01:22 by Eclipse SUMO duarouter Version 1.17.0
<configuration xmlns:xsi="http://www.w3.org/2001/XMLSchema-instance" xsi:noNamespaceSchemaLocation="http://sumo.dlr.de/xsd/duarouterConfiguration.xsd">

    <input>
        <net-file value="C:\Program Files (x86)\Eclipse\Sumo\tools\2023-06-07-16-00-59\osm.net.xml.gz"/>
        <route-files value="C:\Program Files (x86)\Eclipse\Sumo\tools\2023-06-07-16-00-59\osm.bus.trips.xml"/>
    </input>

    <output>
        <output-file value="C:\Program Files (x86)\Eclipse\Sumo\tools\2023-06-07-16-00-59\osm.bus.trips.xml.tmp"/>
        <alternatives-output value="NUL"/>
        <write-trips value="true"/>
    </output>

    <processing>
        <remove-loops value="true"/>
    </processing>

    <time>
        <begin value="0.0"/>
        <end value="3600.0"/>
    </time>

    <report>
        <no-warnings value="true"/>
        <ignore-errors value="true"/>
        <no-step-log value="true"/>
    </report>

</configuration>
-->

<routes xmlns:xsi="http://www.w3.org/2001/XMLSchema-instance" xsi:noNamespaceSchemaLocation="http://sumo.dlr.de/xsd/routes_file.xsd">
    <vType id="bus_bus" vClass="bus" accel="2.6" decel="4.5" />
    <trip id="bus0" type="bus_bus" depart="0.00" departLane="best" departSpeed="max" from="227826940#5" to="267607730#0" />
    <trip id="bus1" type="bus_bus" depart="1.27" departLane="best" from="227826940#5" to="267607730#0" />
    <trip id="bus2" type="bus_bus" depart="2.53" departLane="best" departSpeed="max" from="169679281" to="267607730#0" />
    <trip id="bus3" type="bus_bus" depart="3.80" departLane="best" from="227826940#5" to="267607730#0" />
    <trip id="bus4" type="bus_bus" depart="5.07" departLane="best" departSpeed="max" from="-985733391" to="267607730#0" />
    <trip id="bus5" type="bus_bus" depart="6.33" departLane="best" departSpeed="max" from="167317112" to="267607730#0" />
    <trip id="bus6" type="bus_bus" depart="7.60" departLane="best" departSpeed="max" from="-169680272#2" to="267607730#0" />
    <trip id="bus7" type="bus_bus" depart="8.87" departLane="best" from="227826940#5" to="267607730#0" />
    <trip id="bus8" type="bus_bus" depart="10.13" departLane="best" departSpeed="max" from="227477711" to="267607730#0" />
    <trip id="bus9" type="bus_bus" depart="11.40" departLane="best" from="227826940#5" to="267607730#0" />
    <trip id="bus10" type="bus_bus" depart="12.67" departLane="best" departSpeed="max" from="267606775#0" to="267607730#0" />
    <trip id="bus11" type="bus_bus" depart="13.93" departLane="best" departSpeed="max" from="227477711" to="267607730#0" />
    <trip id="bus12" type="bus_bus" depart="15.20" departLane="best" from="227826940#5" to="267607730#0" />
    <trip id="bus13" type="bus_bus" depart="16.47" departLane="best" from="227826940#5" to="267607730#0" />
    <trip id="bus14" type="bus_bus" depart="17.73" departLane="best" from="227826940#5" to="267607730#0" />
    <trip id="bus15" type="bus_bus" depart="19.00" departLane="best" from="227826940#5" to="267607730#0" />
    <trip id="bus16" type="bus_bus" depart="20.27" departLane="best" departSpeed="max" from="169402099" to="267607730#0" />
    <trip id="bus17" type="bus_bus" depart="21.53" departLane="best" from="227826940#5" to="267607730#0" />
    <trip id="bus18" type="bus_bus" depart="22.80" departLane="best" from="227826940#5" to="267607730#0" />
    <trip id="bus19" type="bus_bus" depart="24.06" departLane="best" from="227826940#5" to="267607730#0" />
    <trip id="bus20" type="bus_bus" depart="25.33" departLane="best" departSpeed="max" from="167317039" to="267607730#0" />
    <trip id="bus21" type="bus_bus" depart="26.60" departLane="best" from="227826940#5" to="267607730#0" />
    <trip id="bus23" type="bus_bus" depart="29.13" departLane="best" from="227826940#5" to="267607730#0" />
    <trip id="bus24" type="bus_bus" depart="30.40" departLane="best" from="227826940#5" to="267607730#0" />
    <trip id="bus25" type="bus_bus" depart="31.66" departLane="best" departSpeed="max" from="986103482" to="267607730#0" />
    <trip id="bus26" type="bus_bus" depart="32.93" departLane="best" departSpeed="max" from="166220841#0" to="267607730#0" />
    <trip id="bus27" type="bus_bus" depart="34.20" departLane="best" from="227826940#5" to="267607730#0" />
    <trip id="bus28" type="bus_bus" depart="35.46" departLane="best" from="227826940#5" to="267607730#0" />
    <trip id="bus29" type="bus_bus" depart="36.73" departLane="best" departSpeed="max" from="-169679286#1" to="267607730#0" />
    <trip id="bus30" type="bus_bus" depart="38.00" departLane="best" departSpeed="max" from="167317131" to="267607730#0" />
    <trip id="bus31" type="bus_bus" depart="39.26" departLane="best" from="227826940#5" to="267607730#0" />
    <trip id="bus32" type="bus_bus" depart="40.53" departLane="best" from="227826940#5" to="267607730#0" />
    <trip id="bus33" type="bus_bus" depart="41.80" departLane="best" departSpeed="max" from="166220903#0" to="267607730#0" />
    <trip id="bus34" type="bus_bus" depart="43.06" departLane="best" departSpeed="max" from="-985688092" to="267607730#0" />
    <trip id="bus35" type="bus_bus" depart="44.33" departLane="best" departSpeed="max" from="991443347#0" to="267607730#0" />
    <trip id="bus36" type="bus_bus" depart="45.60" departLane="best" from="991443347#1" to="267607730#0" />
    <trip id="bus37" type="bus_bus" depart="46.86" departLane="best" from="-167293525#4" to="267607730#0" />
    <trip id="bus38" type="bus_bus" depart="48.13" departLane="best" departSpeed="max" from="169700743" to="267607730#0" />
    <trip id="bus39" type="bus_bus" depart="49.40" departLane="best" from="-166219969#2" to="267607730#0" />
    <trip id="bus40" type="bus_bus" depart="50.66" departLane="best" departSpeed="max" from="986109305#0" to="267607730#0" />
    <trip id="bus41" type="bus_bus" depart="51.93" departLane="best" from="-166219907#2" to="267607730#0" />
    <trip id="bus42" type="bus_bus" depart="53.20" departLane="best" departSpeed="max" from="167317193#0" to="267607730#0" />
    <trip id="bus43" type="bus_bus" depart="54.46" departLane="best" departSpeed="max" from="-169686363#3" to="267607730#0" />
    <trip id="bus44" type="bus_bus" depart="55.73" departLane="best" from="-167293536" to="267607730#0" />
    <trip id="bus45" type="bus_bus" depart="57.00" departLane="best" departSpeed="max" from="-986104609" to="267607730#0" />
    <trip id="bus46" type="bus_bus" depart="58.26" departLane="best" from="357045569#0" to="267607730#0" />
    <trip id="bus47" type="bus_bus" depart="59.53" departLane="best" departSpeed="max" from="166219926#0" to="267607730#0" />
    <trip id="bus48" type="bus_bus" depart="60.80" departLane="best" from="-267606688#17" to="267607730#0" />
    <trip id="bus49" type="bus_bus" depart="62.06" departLane="best" departSpeed="max" from="167293541" to="267607730#0" />
    <trip id="bus50" type="bus_bus" depart="63.33" departLane="best" from="169683864#1" to="267607730#0" />
    <trip id="bus51" type="bus_bus" depart="64.60" departLane="best" departSpeed="max" from="-1010755616" to="267607730#0" />
    <trip id="bus52" type="bus_bus" depart="65.86" departLane="best" departSpeed="max" from="-166219922#15" to="267607730#0" />
    <trip id="bus53" type="bus_bus" depart="67.13" departLane="best" from="362492408#2" to="267607730#0" />
    <trip id="bus54" type="bus_bus" depart="68.40" departLane="best" from="339112690#3" to="267607730#0" />
    <trip id="bus55" type="bus_bus" depart="69.66" departLane="best" from="362492408#0" to="267607730#0" />
    <trip id="bus56" type="bus_bus" depart="70.93" departLane="best" from="166220891#12" to="267607730#0" />
    <trip id="bus57" type="bus_bus" depart="72.19" departLane="best" from="-166219973#2" to="267607730#0" />
    <trip id="bus58" type="bus_bus" depart="73.46" departLane="best" departSpeed="max" from="169683843#0" to="267607730#0" />
    <trip id="bus59" type="bus_bus" depart="74.73" departLane="best" from="339112712#8" to="267607730#0" />
    <trip id="bus60" type="bus_bus" depart="75.99" departLane="best" from="-169686363#1" to="267607730#0" />
    <trip id="bus61" type="bus_bus" depart="77.26" departLane="best" from="-166219964#0" to="267607730#0" />
    <trip id="bus62" type="bus_bus" depart="78.53" departLane="best" from="169679274#3" to="267607730#0" />
    <trip id="bus63" type="bus_bus" depart="79.79" departLane="best" departSpeed="max" from="986109305#0" to="267607730#0" />
    <trip id="bus64" type="bus_bus" depart="81.06" departLane="best" departSpeed="max" from="-986101792" to="267607730#0" />
    <trip id="bus65" type="bus_bus" depart="82.33" departLane="best" from="167293568#1" to="267607730#0" />
    <trip id="bus66" type="bus_bus" depart="83.59" departLane="best" from="646131033" to="267607730#0" />
    <trip id="bus67" type="bus_bus" depart="84.86" departLane="best" from="-169680951#6" to="267607730#0" />
    <trip id="bus68" type="bus_bus" depart="86.13" departLane="best" from="-166220840#1" to="267607730#0" />
    <trip id="bus69" type="bus_bus" depart="87.39" departLane="best" from="-169680951#4" to="267607730#0" />
    <trip id="bus70" type="bus_bus" depart="88.66" departLane="best" departSpeed="max" from="339112712#0" to="267607730#0" />
    <trip id="bus71" type="bus_bus" depart="89.93" departLane="best" from="-169682788#0" to="267607730#0" />
    <trip id="bus72" type="bus_bus" depart="91.19" departLane="best" departSpeed="max" from="-169679288#1" to="267607730#0" />
    <trip id="bus73" type="bus_bus" depart="92.46" departLane="best" departSpeed="max" from="868982557" to="267607730#0" />
    <trip id="bus74" type="bus_bus" depart="93.73" departLane="best" departSpeed="max" from="-986125896" to="267607730#0" />
    <trip id="bus75" type="bus_bus" depart="94.99" departLane="best" from="166220903#3" to="267607730#0" />
    <trip id="bus76" type="bus_bus" depart="96.26" departLane="best" departSpeed="max" from="-985735790" to="267607730#0" />
    <trip id="bus77" type="bus_bus" depart="97.53" departLane="best" from="339112712#11" to="267607730#0" />
    <trip id="bus78" type="bus_bus" depart="98.79" departLane="best" departSpeed="max" from="-985733391" to="267607730#0" />
    <trip id="bus79" type="bus_bus" depart="100.06" departLane="best" departSpeed="max" from="-169683859#2" to="267607730#0" />
    <trip id="bus80" type="bus_bus" depart="101.33" departLane="best" departSpeed="max" from="-986101797#1" to="267607730#0" />
    <trip id="bus81" type="bus_bus" depart="102.59" departLane="best" from="-166219972#0" to="267607730#0" />
    <trip id="bus82" type="bus_bus" depart="103.86" departLane="best" departSpeed="max" from="991443347#0" to="267607730#0" />
    <trip id="bus83" type="bus_bus" depart="105.13" departLane="best" departSpeed="max" from="985688091#0" to="267607730#0" />
    <trip id="bus84" type="bus_bus" depart="106.39" departLane="best" from="267606775#1" to="267607730#0" />
    <trip id="bus85" type="bus_bus" depart="107.66" departLane="best" departSpeed="max" from="-985688094" to="267607730#0" />
    <trip id="bus86" type="bus_bus" depart="108.93" departLane="best" from="-877391417#0" to="267607730#0" />
    <trip id="bus87" type="bus_bus" depart="110.19" departLane="best" departSpeed="max" from="-986104609" to="267607730#0" />
    <trip id="bus88" type="bus_bus" depart="111.46" departLane="best" from="955778651#3" to="267607730#0" />
    <trip id="bus89" type="bus_bus" depart="112.73" departLane="best" from="-166220840#2" to="267607730#0" />
    <trip id="bus90" type="bus_bus" depart="113.99" departLane="best" departSpeed="max" from="-167317140#2" to="267607730#0" />
    <trip id="bus91" type="bus_bus" depart="115.26" departLane="best" departSpeed="max" from="985688091#0" to="267607730#0" />
    <trip id="bus92" type="bus_bus" depart="116.52" departLane="best" departSpeed="max" from="-166219964#1" to="267607730#0" />
    <trip id="bus93" type="bus_bus" depart="117.79" departLane="best" from="166219926#11" to="267607730#0" />
    <trip id="bus94" type="bus_bus" depart="119.06" departLane="best" from="-167317146#1" to="267607730#0" />
    <trip id="bus95" type="bus_bus" depart="120.32" departLane="best" from="-166220873#1" to="267607730#0" />
    <trip id="bus96" type="bus_bus" depart="121.59" departLane="best" from="166220906#1" to="267607730#0" />
    <trip id="bus97" type="bus_bus" depart="122.86" departLane="best" from="-169682786#3" to="267607730#0" />
    <trip id="bus98" type="bus_bus" depart="124.12" departLane="best" from="57016687#2" to="267607730#0" />
    <trip id="bus99" type="bus_bus" depart="125.39" departLane="best" departSpeed="max" from="166220906#0" to="267607730#0" />
    <trip id="bus100" type="bus_bus" depart="126.66" departLane="best" departSpeed="max" from="-985703276#1" to="267607730#0" />

</routes>
